!VERSION
    3
!SOLUTION, TYPE=NLSTATIC
!BOUNDARY
10,1,3
10,5,5
40,1,1
40,3,3
40,5,5
20,5,5,.1E-2
20,2,2,0.0
30,5,5,.1E-2
!STEP, SUBSTEPS = 4, CONVERG=1.E-4
  BOUNDARY,    1
!MATERIAL, NAME=M1
!ELASTIC
  1.e8,      0.25
!PLASTIC
  100., 0.0
!!
!! SOLVER CONTROL
!!
!SOLVER, METHOD =CG, PRECOND = 1, ITERLOG = NO, TIMELOG = NO
  10000,       1
 1.0E-12,     1.0,     0.0
!WRITE, RESULT
!WRITE, VISUAL
!VISUAL, metod=PSR
!surface_num=1
!surface 1
!output_type=VTK
!END
