!VERSION
    3
!SOLUTION, TYPE = NLSTATIC
!BOUNDARY
   1, 1, 6,     0.0
   3, 1,1, 0.0
   3, 3,6, 0.0
   2, 1,1, 0.005
   4, 1,1, 0.005
   2,2,3,0.0
   2,6,6,0.0
   4,6,6,0.0
!STEP, SUBSTEPS = 2, CONVERG=1.E-4
  BOUNDARY,    1
!MATERIAL, NAME=M1
!ELASTIC
  10.0E+04,   0.0
!PLASTIC
  300., 0.0
!WRITE, RESULT, FREQUENCY=1
!ELEMENT_OUTPUT, POSITION=INTEG
   STRAIN
   STRESS
   PLSTRAIN
!SOLVER, METHOD =CG, PRECOND = 1, ITERLOG = NO, TIMELOG = NO
  10000,       1
 1.0E-12,     1.0,     0.0
!WRITE,VISUAL
!VISUAL,method=PSR
!surface_num=1
!surface 1
!output_type=VTK
!END
