!VERSION
    3
!SOLUTION, TYPE=NLSTATIC
!BOUNDARY
   FIX, 1, 6,     0.0
   CL1, 3,3,  4
!STEP, SUBSTEPS=100, CONVERG=1.E-3, MAXITER=100
  BOUNDARY,    1
!MATERIAL, NAME=M1
!ELASTIC
  1.2e7,      0.3
!PLASTIC
  2.4e4,  1.2e5
!!
!! SOLVER CONTROL
!!
!SOLVER,METHOD=CG,PRECOND=3,ITERLOG=NO,TIMELOG=NO
 10000, 1
 1.0e-8, 1.0, 0.0
!WRITE,RESULT
!WRITE,VISUAL
!VISUAL,method=PSR
!surface_num=1
!surface 1
!output_type=VTK
!END
